MATDSS_ver0.96/DSS_Files/123Bus_SingleArea/ieee123_Curr_Elem.Txt

CIRCUIT ELEMENT CURRENTS

(Currents into element from indicated bus)

Power Delivery Elements

  Bus    Phase    Magnitude, A     Angle      (Real)   +j  (Imag)

ELEMENT = "Vsource.SOURCE"
150          1           654.31 /_  158.2 =    -607.67 +j    242.62
150          2           424.51 /_   40.4 =     323.25 +j    275.17
150          3           521.97 /_  -78.6 =      103.4 +j   -511.62
------------
150          0           654.31 /_  -21.8 =     607.67 +j   -242.62
150          0           424.51 /_ -139.6 =    -323.25 +j   -275.17
150          0           521.97 /_  101.4 =     -103.4 +j    511.62

ELEMENT = "Transformer.REG1A"
150          1           654.31 /_  -21.8 =     607.67 +j   -242.62
150          2           424.51 /_ -139.6 =    -323.25 +j   -275.17
150          3           521.97 /_  101.4 =     -103.4 +j    511.62
150          0           181.13 /_  178.1 =    -181.02 +j    6.1615
------------
150R         1           630.66 /_  158.2 =    -585.71 +j    233.85
150R         2           409.16 /_   40.4 =     311.56 +j    265.22
150R         3            503.1 /_  -78.6 =     99.664 +j   -493.13
150R         0           174.58 /_   -1.9 =     174.48 +j   -5.9388

ELEMENT = "Line.L115"
149          1           630.66 /_  -21.8 =     585.71 +j   -233.85
149          2           409.16 /_ -139.6 =    -311.56 +j   -265.22
149          3            503.1 /_  101.4 =    -99.664 +j    493.13
------------
1            1           630.66 /_  158.2 =    -585.71 +j    233.85
1            2           409.16 /_   40.4 =     311.56 +j    265.22
1            3            503.1 /_  -78.6 =     99.663 +j   -493.13

ELEMENT = "Line.L1"
1            2           8.9964 /_ -146.9 =     -7.535 +j   -4.9153
------------
2            2           8.9966 /_   33.1 =     7.5353 +j    4.9151

ELEMENT = "Line.L2"
1            3            46.57 /_   93.0 =    -2.4384 +j    46.506
------------
3            3            46.57 /_  -87.0 =     2.4379 +j   -46.506

ELEMENT = "Line.L3"
1            1           612.58 /_  -21.6 =     569.55 +j   -225.54
1            2           400.24 /_ -139.4 =    -304.03 +j    -260.3
1            3           457.08 /_  102.3 =    -97.224 +j    446.62
------------
7            1           612.58 /_  158.4 =    -569.55 +j    225.54
7            2           400.24 /_   40.6 =     304.03 +j     260.3
7            3           457.08 /_  -77.7 =     97.223 +j   -446.62

ELEMENT = "Line.L4"
3            3            18.14 /_   93.0 =   -0.95402 +j    18.115
------------
4            3           18.141 /_  -87.0 =    0.95365 +j   -18.116

ELEMENT = "Line.L5"
3            3            28.43 /_   93.0 =    -1.4839 +j    28.391
------------
5            3            28.43 /_  -87.0 =     1.4833 +j   -28.391

ELEMENT = "Line.L6"
5            3           19.113 /_   93.0 =   -0.99595 +j    19.087
------------
6            3           19.113 /_  -87.0 =    0.99549 +j   -19.087

ELEMENT = "Line.L7"
7            1           603.47 /_  -21.5 =     561.43 +j   -221.28
7            2           400.24 /_ -139.4 =    -304.03 +j    -260.3
7            3           457.08 /_  102.3 =    -97.223 +j    446.62
------------
8            1           603.47 /_  158.5 =    -561.43 +j    221.28
8            2           400.24 /_   40.6 =     304.03 +j     260.3
8            3           457.08 /_  -77.7 =     97.223 +j   -446.62

ELEMENT = "Line.L8"
8            2           9.0225 /_ -147.3 =    -7.5926 +j   -4.8741
------------
12           2           9.0227 /_   32.7 =      7.593 +j    4.8739

ELEMENT = "Line.L9"
8            1           46.542 /_  -28.0 =     41.077 +j   -21.883
------------
9            1           46.542 /_  152.0 =    -41.077 +j    21.883

ELEMENT = "Line.L10"
8            1           557.25 /_  -21.0 =     520.35 +j    -199.4
8            2           391.31 /_ -139.2 =    -296.44 +j   -255.43
8            3           457.08 /_  102.3 =    -97.223 +j    446.62
------------
13           1           557.25 /_  159.0 =    -520.35 +j     199.4
13           2           391.31 /_   40.8 =     296.44 +j    255.43
13           3           457.08 /_  -77.7 =     97.222 +j   -446.62

ELEMENT = "Line.L11"
9R           1           28.071 /_  -28.1 =     24.771 +j   -13.205
------------
14           1           28.071 /_  151.9 =    -24.771 +j    13.206

ELEMENT = "Line.L12"
13           3           46.499 /_   92.3 =    -1.8804 +j    46.461
------------
34           3           46.499 /_  -87.7 =     1.8802 +j   -46.461

ELEMENT = "Line.L13"
13           1           229.21 /_  -30.4 =     197.67 +j   -116.03
13           2            155.5 /_ -155.1 =    -141.06 +j    -65.44
13           3           153.76 /_   88.6 =     3.6346 +j    153.71
------------
18           1           229.21 /_  149.6 =    -197.67 +j    116.03
18           2           155.51 /_   24.9 =     141.07 +j    65.439
18           3           153.76 /_  -91.4 =    -3.6368 +j   -153.72

ELEMENT = "Line.L14"
14           1           18.754 /_  -28.1 =     16.549 +j   -8.8237
------------
11           1           18.754 /_  151.9 =    -16.549 +j    8.8242

ELEMENT = "Line.L15"
14           1           9.3169 /_  -28.1 =     8.2219 +j   -4.3824
------------
10           1           9.3171 /_  151.9 =    -8.2219 +j    4.3829

ELEMENT = "Line.L16"
15           3           18.416 /_   92.3 =   -0.74067 +j    18.401
------------
16           3           18.417 /_  -87.7 =    0.73999 +j   -18.402

ELEMENT = "Line.L17"
15           3           9.2033 /_   92.3 =   -0.37205 +j    9.1957
------------
17           3           9.2036 /_  -87.7 =    0.37141 +j   -9.1961

ELEMENT = "Line.L18"
18           1           37.421 /_  -28.9 =     32.765 +j   -18.077
------------
19           1           37.421 /_  151.1 =    -32.765 +j    18.077

ELEMENT = "Line.L19"
18           1           55.966 /_  -29.1 =     48.923 +j    -27.18
18           2           19.101 /_ -147.8 =    -16.162 +j   -10.181
18           3           55.757 /_   92.2 =    -2.1641 +j    55.715
------------
21           1           55.967 /_  150.9 =    -48.923 +j    27.181
21           2           19.101 /_   32.2 =     16.162 +j     10.18
21           3           55.758 /_  -87.8 =     2.1633 +j   -55.716

ELEMENT = "Line.L20"
19           1           18.634 /_  -28.9 =     16.314 +j   -9.0039
------------
20           1           18.634 /_  151.1 =    -16.314 +j    9.0045

ELEMENT = "Line.L21"
21           2           19.103 /_ -147.8 =    -16.166 +j   -10.177
------------
22           2           19.103 /_   32.2 =     16.167 +j    10.177

ELEMENT = "Line.L22"
21           1           55.967 /_  -29.1 =     48.923 +j   -27.181
21           2        0.0046273 /_  -34.8 =  0.0038001 +j -0.0026402
21           3           55.758 /_   92.2 =    -2.1633 +j    55.716
------------
23           1           55.967 /_  150.9 =    -48.923 +j    27.182
23           2        0.0038929 /_  145.2 =  -0.0031971 +j 0.0022211
23           3           55.758 /_  -87.8 =     2.1627 +j   -55.716

ELEMENT = "Line.L23"
23           3           18.578 /_   92.2 =   -0.71858 +j    18.564
------------
24           3           18.579 /_  -87.8 =    0.71759 +j   -18.565

ELEMENT = "Line.L24"
23           1           55.967 /_  -29.1 =     48.923 +j   -27.182
23           2        0.0038929 /_  -34.8 =  0.0031971 +j -0.0022211
23           3            37.18 /_   92.2 =    -1.4441 +j    37.152
------------
25           1           55.967 /_  150.9 =    -48.923 +j    27.183
25           2        0.0030851 /_  145.2 =  -0.0025337 +j 0.0017601
25           3           37.181 /_  -87.8 =     1.4434 +j   -37.153

ELEMENT = "Line.L25"
25R          1           18.633 /_  -29.1 =     16.285 +j   -9.0557
25R          3           18.591 /_   92.2 =   -0.72132 +j    18.577
------------
26           1           18.634 /_  150.9 =    -16.285 +j    9.0566
26           3           18.591 /_  -87.8 =    0.72059 +j   -18.577

ELEMENT = "Line.L26"
25           1           37.101 /_  -29.0 =     32.434 +j   -18.014
25           2        0.0030851 /_  -34.8 =  0.0025337 +j -0.0017601
25           3            18.59 /_   92.2 =   -0.72206 +j    18.576
------------
28           1           37.101 /_  151.0 =    -32.434 +j    18.015
28           2        0.0024975 /_  145.2 =  -0.0020511 +j 0.0014249
28           3            18.59 /_  -87.8 =    0.72154 +j   -18.576

ELEMENT = "Line.L27"
26           1           18.634 /_  -29.1 =     16.285 +j   -9.0566
26           3       0.00072582 /_ -142.2 =  -0.00057378 +j -0.00044451
------------
27           1           18.634 /_  150.9 =    -16.285 +j    9.0573
27           3       7.276E-012 /_  180.0 =  -7.276E-012 +j         0

ELEMENT = "Line.L28"
26           3           18.592 /_   92.2 =   -0.72001 +j    18.578
------------
31           3           18.592 /_  -87.8 =    0.71961 +j   -18.578

ELEMENT = "Line.L29"
27           1           18.634 /_  -29.1 =     16.285 +j   -9.0573
------------
33           1           18.634 /_  150.9 =    -16.285 +j    9.0584

ELEMENT = "Line.L30"
28           1           18.467 /_  -29.1 =     16.143 +j   -8.9685
28           2        0.0024975 /_  -34.8 =  0.0020511 +j -0.0014249
28           3            18.59 /_   92.2 =   -0.72154 +j    18.576
------------
29           1           18.467 /_  150.9 =    -16.142 +j    8.9695
29           2         0.001616 /_  145.2 =  -0.0013272 +j 0.00092194
29           3           18.591 /_  -87.8 =    0.72077 +j   -18.577

ELEMENT = "Line.L31"
29           1        0.0018687 /_   83.5 =  0.00021101 +j 0.0018567
29           2         0.001616 /_  -34.8 =  0.0013272 +j -0.00092194
29           3           18.591 /_   92.2 =   -0.72077 +j    18.577
------------
30           1       0.00067952 /_  -96.5 =  -7.6731E-005 +j -0.00067517
30           2       0.00058763 /_  145.2 =  -0.00048263 +j 0.00033524
30           3           18.591 /_  -87.8 =    0.71986 +j   -18.577

ELEMENT = "Line.L32"
30           1       0.00067952 /_   83.5 =  7.6731E-005 +j 0.00067517
30           2       0.00058763 /_  -34.8 =  0.00048263 +j -0.00033524
30           3       0.00064121 /_ -143.6 =  -0.00051633 +j -0.0003802
------------
250          1      8.1348E-012 /_   63.4 =  3.638E-012 +j 7.276E-012
250          2      1.3117E-011 /_  146.3 =  -1.0914E-011 +j 7.276E-012
250          3      1.4552E-011 /_   90.0 =          0 +j 1.4552E-011

ELEMENT = "Line.L33"
31           3           9.2977 /_   92.2 =   -0.35952 +j    9.2907
------------
32           3            9.298 /_  -87.8 =    0.35898 +j    -9.291

ELEMENT = "Line.L34"
34           3            27.62 /_   92.3 =    -1.1129 +j    27.597
------------
15           3            27.62 /_  -87.7 =     1.1127 +j   -27.597

ELEMENT = "Line.L35"
35           1           18.423 /_  -29.0 =     16.118 +j   -8.9228
35           2           18.428 /_ -147.9 =    -15.615 +j   -9.7857
------------
36           1           18.424 /_  151.0 =    -16.118 +j    8.9244
36           2           18.428 /_   32.1 =     15.616 +j    9.7846

ELEMENT = "Line.L36"
35           1           108.72 /_  -34.9 =     89.132 +j   -62.258
35           2           108.38 /_ -155.4 =     -98.56 +j   -45.068
35           3           98.172 /_   86.6 =      5.802 +j    98.001
------------
40           1           108.72 /_  145.1 =    -89.132 +j    62.259
40           2           108.38 /_   24.6 =     98.561 +j    45.067
40           3           98.173 /_  -93.4 =    -5.8026 +j   -98.001

ELEMENT = "Line.L37"
36           1           18.424 /_  -29.0 =     16.118 +j   -8.9244
------------
37           1           18.424 /_  151.0 =    -16.118 +j     8.925

ELEMENT = "Line.L38"
36           2           18.428 /_ -147.9 =    -15.616 +j   -9.7846
------------
38           2           18.428 /_   32.1 =     15.616 +j    9.7843

ELEMENT = "Line.L39"
38           2           9.1115 /_ -147.9 =    -7.7214 +j   -4.8374
------------
39           2           9.1118 /_   32.1 =      7.722 +j     4.837

ELEMENT = "Line.L40"
40           3           9.2779 /_   92.2 =    -0.3509 +j    9.2712
------------
41           3           9.2782 /_  -87.8 =    0.35031 +j   -9.2715

ELEMENT = "Line.L41"
40           1           108.72 /_  -34.9 =     89.132 +j   -62.259
40           2           108.38 /_ -155.4 =    -98.561 +j   -45.067
40           3           88.943 /_   86.0 =     6.1535 +j     88.73
------------
42           1           108.72 /_  145.1 =    -89.132 +j    62.259
42           2           108.38 /_   24.6 =     98.562 +j    45.067
42           3           88.943 /_  -94.0 =    -6.1542 +j    -88.73

ELEMENT = "Line.L42"
42           2           19.014 /_ -148.0 =    -16.123 +j   -10.078
------------
43           2           19.014 /_   32.0 =     16.124 +j    10.078

ELEMENT = "Line.L43"
42           1           99.341 /_  -35.5 =     80.879 +j   -57.683
42           2           89.557 /_ -157.0 =    -82.439 +j   -34.989
42           3           88.943 /_   86.0 =     6.1542 +j     88.73
------------
44           1           99.342 /_  144.5 =    -80.879 +j    57.683
44           2           89.557 /_   23.0 =      82.44 +j    34.988
44           3           88.944 /_  -94.0 =    -6.1547 +j    -88.73

ELEMENT = "Line.L44"
44           1           18.773 /_  -29.1 =     16.411 +j   -9.1163
------------
45           1           18.773 /_  150.9 =    -16.411 +j    9.1167

ELEMENT = "Line.L45"
44           1           80.715 /_  -37.0 =     64.468 +j   -48.567
44           2           89.557 /_ -157.0 =     -82.44 +j   -34.988
44           3           88.944 /_   86.0 =     6.1547 +j     88.73
------------
47           1           80.716 /_  143.0 =    -64.468 +j    48.568
47           2           89.558 /_   23.0 =      82.44 +j    34.988
47           3           88.944 /_  -94.0 =    -6.1554 +j   -88.731

ELEMENT = "Line.L46"
45           1           9.4559 /_  -29.1 =     8.2659 +j   -4.5924
------------
46           1           9.4562 /_  150.9 =    -8.2659 +j     4.593

ELEMENT = "Line.L47"
47           1           35.251 /_  -38.0 =     27.763 +j   -21.723
47           2           36.494 /_ -157.0 =    -33.594 +j   -14.256
47           3            35.85 /_   83.1 =     4.3227 +j    35.588
------------
48           1           35.251 /_  142.0 =    -27.762 +j    21.723
48           2           36.494 /_   23.0 =     33.594 +j    14.256
48           3            35.85 /_  -96.9 =    -4.3232 +j   -35.589

ELEMENT = "Line.L48"
47           1           27.581 /_  -35.0 =       22.6 +j   -15.811
47           2           35.156 /_ -157.0 =    -32.362 +j   -13.734
47           3           35.366 /_   90.5 =   -0.32384 +j    35.364
------------
49           1           27.582 /_  145.0 =      -22.6 +j    15.811
49           2           35.157 /_   23.0 =     32.363 +j    13.734
49           3           35.366 /_  -89.5 =    0.32309 +j   -35.365

ELEMENT = "Line.L49"
49           1           9.4613 /_  -29.1 =     8.2691 +j   -4.5976
49           2        0.0031632 /_   -9.6 =   0.003119 +j -0.00052683
49           3            18.61 /_   92.0 =   -0.65908 +j    18.598
------------
50           1           9.4614 /_  150.9 =    -8.2689 +j    4.5982
50           2        0.0023724 /_  170.4 =  -0.0023393 +j 0.00039515
50           3            18.61 /_  -88.0 =    0.65833 +j   -18.598

ELEMENT = "Line.L50"
50           1           9.4614 /_  -29.1 =     8.2689 +j   -4.5982
50           2        0.0023724 /_   -9.6 =  0.0023393 +j -0.00039515
50           3        0.0024022 /_ -159.8 =  -0.0022547 +j -0.00082902
------------
51           1           9.4615 /_  150.9 =    -8.2687 +j    4.5988
51           2        0.0015816 /_  170.4 =  -0.0015596 +j 0.00026345
51           3        0.0016015 /_   20.2 =  0.0015031 +j 0.00055269

ELEMENT = "Line.L51"
51           1        0.0012177 /_   69.7 =  0.00042276 +j 0.0011419
51           2        0.0015816 /_   -9.6 =  0.0015596 +j -0.00026345
51           3        0.0016015 /_ -159.8 =  -0.0015031 +j -0.00055269
------------
151          1      7.4061E-008 /_   -2.5 =  7.3988E-008 +j -3.276E-009
151          2      1.4657E-008 /_ -121.4 =  -7.6452E-009 +j -1.2506E-008
151          3        1.76E-008 /_  118.8 =  -8.4692E-009 +j 1.5429E-008

ELEMENT = "Line.L52"
52           1           315.19 /_  -13.6 =     306.29 +j   -74.362
52           2           245.43 /_ -129.3 =    -155.38 +j   -189.99
52           3           265.58 /_  111.9 =    -98.975 +j    246.45
------------
53           1           315.19 /_  166.4 =    -306.29 +j    74.363
53           2           245.43 /_   50.7 =     155.38 +j    189.99
53           3           265.58 /_  -68.1 =     98.975 +j   -246.45

ELEMENT = "Line.L53"
53           1           297.14 /_  -12.7 =     289.89 +j   -65.274
53           2           245.43 /_ -129.3 =    -155.38 +j   -189.99
53           3           265.58 /_  111.9 =    -98.975 +j    246.45
------------
54           1           297.14 /_  167.3 =    -289.89 +j    65.274
54           2           245.43 /_   50.7 =     155.38 +j    189.99
54           3           265.58 /_  -68.1 =     98.974 +j   -246.45

ELEMENT = "Line.L54"
54           1           9.2391 /_  -29.1 =     8.0744 +j   -4.4906
54           2           9.0631 /_ -148.0 =    -7.6841 +j   -4.8057
54           3        0.0016037 /_ -155.5 =  -0.0014593 +j -0.00066515
------------
55           1           9.2396 /_  150.9 =    -8.0744 +j    4.4914
55           2           9.0635 /_   32.0 =     7.6849 +j    4.8051
55           3       0.00080186 /_   24.5 =  0.00072963 +j 0.00033258

ELEMENT = "Line.L55"
54           1           288.29 /_  -12.2 =     281.81 +j   -60.784
54           2           236.87 /_ -128.6 =    -147.69 +j   -185.18
54           3           265.58 /_  111.9 =    -98.973 +j    246.45
------------
57           1           288.29 /_  167.8 =    -281.81 +j    60.785
57           2           236.87 /_   51.4 =     147.69 +j    185.18
57           3           265.58 /_  -68.1 =     98.972 +j   -246.45

ELEMENT = "Line.L56"
55           1       0.00087256 /_   96.1 =  -9.2529E-005 +j 0.00086764
55           2           9.0635 /_ -148.0 =    -7.6849 +j   -4.8051
55           3       0.00080186 /_ -155.5 =  -0.00072963 +j -0.00033258
------------
56           1       1.677E-011 /_   77.5 =  3.638E-012 +j 1.6371E-011
56           2           9.0639 /_   32.0 =     7.6857 +j    4.8046
56           3         1.5E-011 /_  -76.0 =  3.638E-012 +j -1.4552E-011

ELEMENT = "Line.L57"
57           2           18.411 /_ -148.2 =    -15.646 +j   -9.7052
------------
58           2           18.412 /_   31.8 =     15.646 +j    9.7049

ELEMENT = "Line.L58"
57           1           288.29 /_  -12.2 =     281.81 +j   -60.785
57           2           219.61 /_ -127.0 =    -132.05 +j   -175.48
57           3           265.58 /_  111.9 =    -98.972 +j    246.45
------------
60           1           288.29 /_  167.8 =    -281.81 +j    60.787
60           2           219.61 /_   53.0 =     132.05 +j    175.48
60           3           265.58 /_  -68.1 =     98.969 +j   -246.45

ELEMENT = "Line.L59"
58           2           9.0949 /_ -148.2 =    -7.7289 +j   -4.7938
------------
59           2           9.0951 /_   31.8 =     7.7294 +j    4.7935

ELEMENT = "Line.L60"
60           1        0.0018361 /_   91.5 =  -4.94E-005 +j 0.0018354
60           2        0.0017535 /_  -40.0 =  0.0013425 +j -0.001128
60           3        0.0015755 /_ -148.9 =  -0.0013497 +j -0.00081288
------------
61           1      1.3683E-005 /_   88.3 =  4.1755E-007 +j 1.3677E-005
61           2      1.4046E-005 /_  -30.1 =  1.2157E-005 +j -7.0345E-006
61           3      1.3923E-005 /_ -150.8 =  -1.2149E-005 +j -6.8023E-006

ELEMENT = "Line.L61"
60           1           45.322 /_  -41.3 =      34.06 +j     -29.9
60           2           52.154 /_ -150.5 =    -45.404 +j   -25.662
60           3           80.685 /_   92.2 =    -3.1468 +j    80.624
------------
62           1           45.327 /_  138.7 =     -34.06 +j    29.907
62           2           52.158 /_   29.5 =      45.41 +j    25.658
62           3           80.688 /_  -87.8 =     3.1401 +j   -80.627

ELEMENT = "Line.L62"
62           1           45.327 /_  -41.3 =      34.06 +j   -29.907
62           2           52.158 /_ -150.5 =     -45.41 +j   -25.658
62           3           62.103 /_   92.5 =    -2.7497 +j    62.042
------------
63           1            45.33 /_  138.7 =    -34.059 +j    29.913
63           2            52.16 /_   29.5 =     45.415 +j    25.655
63           3           62.105 /_  -87.5 =     2.7449 +j   -62.045

ELEMENT = "Line.L63"
63           1           26.949 /_  -49.2 =     17.613 +j   -20.397
63           2            52.16 /_ -150.5 =    -45.415 +j   -25.655
63           3           62.105 /_   92.5 =    -2.7449 +j    62.045
------------
64           1           26.957 /_  130.8 =    -17.613 +j    20.407
64           2           52.165 /_   29.5 =     45.424 +j    25.649
64           3            62.11 /_  -87.5 =     2.7355 +j    -62.05

ELEMENT = "Line.L64"
64           1           26.957 /_  -49.2 =     17.613 +j   -20.407
64           2           17.881 /_ -157.5 =    -16.519 +j   -6.8441
64           3            62.11 /_   92.5 =    -2.7355 +j     62.05
------------
65           1           26.966 /_  130.8 =    -17.612 +j     20.42
65           2           17.888 /_   22.5 =      16.53 +j    6.8371
65           3           62.115 /_  -87.5 =     2.7241 +j   -62.056

ELEMENT = "Line.L65"
65           1        0.0097314 /_   86.5 =  0.00059247 +j 0.0097133
65           2         0.010091 /_  -31.9 =  0.0085692 +j -0.0053297
65           3           34.833 /_   92.7 =    -1.6514 +j    34.794
------------
66           1      2.2737E-012 /_ -126.9 =  -1.3642E-012 +j -1.819E-012
66           2      4.5475E-012 /_   53.1 =  2.7285E-012 +j 3.638E-012
66           3           34.837 /_  -87.3 =     1.6427 +j   -34.799

ELEMENT = "Line.L66"
67           1           54.518 /_  -30.4 =     47.026 +j   -27.581
------------
68           1           54.518 /_  149.6 =    -47.026 +j    27.581

ELEMENT = "Line.L67"
67           1           118.53 /_   22.3 =     109.69 +j    44.903
67           2            126.1 /_ -108.1 =    -39.141 +j   -119.87
67           3           132.96 /_  133.7 =    -91.788 +j    96.188
------------
72           1           118.53 /_ -157.7 =    -109.69 +j   -44.902
72           2            126.1 /_   71.9 =     39.142 +j    119.87
72           3           132.96 /_  -46.3 =     91.787 +j   -96.188

ELEMENT = "Line.L68"
67           1           82.957 /_  -30.6 =     71.414 +j   -42.214
67           2           54.276 /_ -148.8 =    -46.438 +j   -28.095
67           3           64.628 /_   91.0 =    -1.1285 +j    64.618
------------
97           1           82.957 /_  149.4 =    -71.414 +j    42.214
97           2           54.276 /_   31.2 =     46.439 +j    28.095
97           3           64.628 /_  -89.0 =     1.1277 +j   -64.618

ELEMENT = "Line.L69"
68           1           45.452 /_  -30.4 =     39.203 +j   -23.001
------------
69           1           45.452 /_  149.6 =    -39.203 +j    23.001

ELEMENT = "Line.L70"
69           1            27.29 /_  -30.4 =     23.534 +j   -13.815
------------
70           1            27.29 /_  149.6 =    -23.534 +j    13.816

ELEMENT = "Line.L71"
70           1           18.197 /_  -30.4 =     15.693 +j   -9.2136
------------
71           1           18.198 /_  149.6 =    -15.692 +j    9.2142

ELEMENT = "Line.L72"
72           3           55.452 /_   90.9 =   -0.86361 +j    55.445
------------
73           3           55.452 /_  -89.1 =     0.8631 +j   -55.446

ELEMENT = "Line.L73"
72           1           118.53 /_   22.3 =     109.69 +j    44.902
72           2            126.1 /_ -108.1 =    -39.142 +j   -119.87
72           3           99.635 /_  155.9 =    -90.923 +j    40.743
------------
76           1           118.53 /_ -157.7 =    -109.69 +j   -44.902
76           2            126.1 /_   71.9 =     39.142 +j    119.87
76           3           99.634 /_  -24.1 =     90.923 +j   -40.743

ELEMENT = "Line.L74"
73           3           37.297 /_   90.9 =   -0.57146 +j    37.292
------------
74           3           37.297 /_  -89.1 =     0.5708 +j   -37.293

ELEMENT = "Line.L75"
74           3           18.206 /_   90.9 =   -0.27582 +j    18.204
------------
75           3           18.207 /_  -89.1 =    0.27507 +j   -18.205

ELEMENT = "Line.L76"
76           1           77.173 /_   60.3 =     38.256 +j    67.023
76           2           77.305 /_  -57.3 =     41.765 +j   -65.052
76           3            76.91 /_ -177.7 =    -76.851 +j   -3.0227
------------
77           1           77.171 /_ -119.7 =    -38.256 +j   -67.022
77           2           77.304 /_  122.7 =    -41.764 +j    65.052
77           3           76.909 /_    2.3 =      76.85 +j     3.022

ELEMENT = "Line.L77"
76           1           32.862 /_    5.1 =     32.734 +j    2.8984
76           2           57.673 /_ -129.9 =    -36.964 +j   -44.269
76           3           20.981 /_  157.0 =    -19.312 +j    8.2016
------------
86           1           32.862 /_ -174.9 =    -32.734 +j   -2.8963
86           2           57.673 /_   50.1 =     36.967 +j    44.268
86           3           20.979 /_  -23.0 =     19.309 +j   -8.2026

ELEMENT = "Line.L78"
77           1           77.171 /_   60.3 =     38.256 +j    67.022
77           2           79.913 /_  -44.2 =     57.246 +j   -55.758
77           3           76.909 /_ -177.7 =     -76.85 +j    -3.022
------------
78           1           77.171 /_ -119.7 =    -38.256 +j   -67.021
78           2           79.913 /_  135.8 =    -57.246 +j    55.758
78           3           76.909 /_    2.3 =     76.849 +j    3.0218

ELEMENT = "Line.L79"
78           1           19.208 /_  -30.6 =     16.537 +j   -9.7706
78           2       0.00066779 /_  -28.9 =  0.0005845 +j -0.00032295
78           3        0.0007946 /_ -148.4 =  -0.0006767 +j -0.0004165
------------
79           1           19.208 /_  149.4 =    -16.537 +j    9.7713
79           2       5.457E-012 /_    0.0 =  5.457E-012 +j         0
79           3       1.627E-011 /_  -63.4 =  7.276E-012 +j -1.4552E-011

ELEMENT = "Line.L80"
78           1           79.804 /_   74.2 =     21.719 +j    76.792
78           2           79.912 /_  -44.2 =     57.245 +j   -55.758
78           3           76.908 /_ -177.7 =    -76.849 +j   -3.0214
------------
80           1           79.803 /_ -105.8 =    -21.718 +j    -76.79
80           2           79.911 /_  135.8 =    -57.244 +j    55.757
80           3           76.907 /_    2.3 =     76.847 +j    3.0205

ELEMENT = "Line.L81"
80           1           79.803 /_   74.2 =     21.718 +j     76.79
80           2           86.306 /_  -32.6 =     72.706 +j   -46.503
80           3           76.907 /_ -177.7 =    -76.847 +j   -3.0205
------------
81           1           79.802 /_ -105.8 =    -21.718 +j    -76.79
81           2           86.305 /_  147.4 =    -72.706 +j    46.502
81           3           76.906 /_    2.3 =     76.847 +j    3.0202

ELEMENT = "Line.L82"
81           1           79.802 /_   74.2 =     21.718 +j     76.79
81           2           86.305 /_  -32.6 =     72.706 +j   -46.502
81           3           82.303 /_ -158.5 =    -76.557 +j   -30.213
------------
82           1           79.801 /_ -105.8 =    -21.718 +j   -76.789
82           2           86.305 /_  147.4 =    -72.705 +j    46.502
82           3           82.302 /_   21.5 =     76.556 +j    30.212

ELEMENT = "Line.L83"
81           3           27.194 /_   90.6 =   -0.29006 +j    27.193
------------
84           3           27.195 /_  -89.4 =    0.28879 +j   -27.193

ELEMENT = "Line.L84"
82           1           86.206 /_   85.9 =     6.2308 +j     85.98
82           2           86.305 /_  -32.6 =     72.705 +j   -46.502
82           3           82.302 /_ -158.5 =    -76.556 +j   -30.212
------------
83           1           86.205 /_  -94.1 =    -6.2307 +j    -85.98
83           2           86.304 /_  147.4 =    -72.704 +j    46.502
83           3           82.301 /_   21.5 =     76.555 +j    30.212

ELEMENT = "Line.L85"
84           3           18.137 /_   90.6 =   -0.19046 +j    18.136
------------
85           3           18.137 /_  -89.4 =    0.18957 +j   -18.136

ELEMENT = "Line.L86"
86           1           32.862 /_    5.1 =     32.734 +j    2.8963
86           2           49.216 /_ -126.4 =    -29.197 +j    -39.62
86           3           20.979 /_  157.0 =    -19.309 +j    8.2026
------------
87           1           32.862 /_ -174.9 =    -32.734 +j   -2.8948
87           2           49.216 /_   53.6 =     29.198 +j    39.619
87           3           20.979 /_  -23.0 =     19.308 +j   -8.2034

ELEMENT = "Line.L87"
87           1           20.957 /_   35.3 =     17.098 +j    12.117
------------
88           1           20.956 /_ -144.7 =    -17.098 +j   -12.117

ELEMENT = "Line.L88"
87           1           18.153 /_  -30.5 =     15.635 +j   -9.2221
87           2           33.261 /_ -114.2 =    -13.632 +j   -30.339
87           3           20.979 /_  157.0 =    -19.308 +j    8.2034
------------
89           1           18.153 /_  149.5 =    -15.635 +j     9.223
89           2           33.261 /_   65.8 =     13.633 +j    30.339
89           3           20.978 /_  -23.0 =     19.307 +j   -8.2039

ELEMENT = "Line.L89"
89           2           21.164 /_  -84.7 =     1.9651 +j   -21.072
------------
90           2           21.163 /_   95.3 =    -1.9647 +j    21.072

ELEMENT = "Line.L90"
89           1           18.153 /_  -30.5 =     15.635 +j    -9.223
89           2           18.143 /_ -149.3 =    -15.598 +j   -9.2664
89           3           20.978 /_  157.0 =    -19.307 +j    8.2039
------------
91           1           18.153 /_  149.5 =    -15.635 +j    9.2237
91           2           18.143 /_   30.7 =     15.599 +j    9.2661
91           3           20.977 /_  -23.0 =     19.307 +j   -8.2043

ELEMENT = "Line.L91"
91           3           20.976 /_  157.0 =    -19.305 +j    8.2053
------------
92           3           20.976 /_  -23.0 =     19.304 +j   -8.2056

ELEMENT = "Line.L92"
91           1           18.153 /_  -30.5 =     15.635 +j   -9.2237
91           2           18.143 /_ -149.3 =    -15.599 +j   -9.2661
91           3        0.0018536 /_ -148.4 =  -0.0015786 +j -0.00097152
------------
93           1           18.153 /_  149.5 =    -15.635 +j    9.2244
93           2           18.144 /_   30.7 =     15.599 +j    9.2658
93           3        0.0010592 /_   31.6 =  0.00090209 +j 0.00055516

ELEMENT = "Line.L93"
93           1           18.154 /_  -30.5 =     15.635 +j   -9.2254
------------
94           1           18.154 /_  149.5 =    -15.635 +j     9.226

ELEMENT = "Line.L94"
93           1       0.00098557 /_   78.2 =  0.0002015 +j 0.00096476
93           2           18.144 /_ -149.3 =    -15.599 +j   -9.2658
93           3        0.0010592 /_ -148.4 =  -0.00090209 +j -0.00055516
------------
95           1      6.5585E-012 /_  -33.7 =  5.457E-012 +j -3.638E-012
95           2           18.144 /_   30.7 =       15.6 +j    9.2654
95           3       1.627E-011 /_  153.4 =  -1.4552E-011 +j 7.276E-012

ELEMENT = "Line.L95"
95           2           9.0731 /_ -149.3 =     -7.801 +j    -4.633
------------
96           2           9.0733 /_   30.7 =     7.8014 +j    4.6328

ELEMENT = "Line.L96"
97           1           18.123 /_  -30.4 =     15.637 +j   -9.1619
97           2           18.077 /_ -148.8 =    -15.457 +j    -9.372
97           3           19.135 /_   91.0 =   -0.33799 +j    19.133
------------
98           1           18.124 /_  149.6 =    -15.637 +j    9.1627
98           2           18.077 /_   31.2 =     15.458 +j    9.3716
98           3           19.136 /_  -89.0 =     0.3371 +j   -19.133

ELEMENT = "Line.L97"
98           1        0.0048958 /_   82.8 =  0.0006153 +j  0.004857
98           2           18.077 /_ -148.8 =    -15.458 +j   -9.3716
98           3           19.136 /_   91.0 =    -0.3371 +j    19.133
------------
99           1        0.0032639 /_  -97.2 =  -0.00041017 +j -0.0032381
99           2           18.078 /_   31.2 =      15.46 +j    9.3709
99           3           19.137 /_  -89.0 =    0.33532 +j   -19.134

ELEMENT = "Line.L98"
99           1        0.0032639 /_   82.8 =  0.00041017 +j 0.0032381
99           2        0.0036035 /_  -24.3 =  0.0032847 +j -0.001482
99           3           19.137 /_   91.0 =   -0.33532 +j    19.134
------------
100          1        0.0023738 /_  -97.2 =  -0.00029831 +j -0.002355
100          2        0.0026208 /_  155.7 =  -0.0023889 +j 0.0010778
100          3           19.137 /_  -89.0 =    0.33434 +j   -19.134

ELEMENT = "Line.L99"
100          1        0.0023738 /_   82.8 =  0.00029831 +j  0.002355
100          2        0.0026208 /_  -24.3 =  0.0023889 +j -0.0010778
100          3        0.0028147 /_ -156.9 =   -0.00259 +j -0.0011021
------------
450          1      4.6375E-012 /_ -101.3 =  -9.0949E-013 +j -4.5475E-012
450          2       1.819E-012 /_  -90.0 =          0 +j -1.819E-012
450          3      4.0674E-012 /_  116.6 =  -1.819E-012 +j 3.638E-012

ELEMENT = "Line.L118"
197          1           64.834 /_  -30.7 =     55.776 +j   -33.052
197          2           36.199 /_ -148.9 =    -30.982 +j   -18.723
197          3           45.493 /_   91.0 =   -0.78973 +j    45.486
------------
101          1           64.834 /_  149.3 =    -55.776 +j    33.053
101          2             36.2 /_   31.1 =     30.982 +j    18.722
101          3           45.493 /_  -89.0 =    0.78892 +j   -45.486

ELEMENT = "Line.L100"
101          3           45.495 /_   91.0 =   -0.78374 +j    45.488
------------
102          3           45.495 /_  -89.0 =    0.78332 +j   -45.488

ELEMENT = "Line.L101"
101          1           64.834 /_  -30.7 =     55.776 +j   -33.053
101          2             36.2 /_ -148.9 =    -30.982 +j   -18.722
101          3        0.0056312 /_ -156.9 =  -0.0051802 +j -0.0022082
------------
105          1           64.835 /_  149.3 =    -55.776 +j    33.054
105          2             36.2 /_   31.1 =     30.983 +j    18.722
105          3        0.0046633 /_   23.1 =  0.0042898 +j 0.0018288

ELEMENT = "Line.L102"
102          3           36.414 /_   91.0 =   -0.62113 +j    36.409
------------
103          3           36.415 /_  -89.0 =    0.62052 +j   -36.409

ELEMENT = "Line.L103"
103          3           18.223 /_   91.0 =   -0.30572 +j     18.22
------------
104          3           18.224 /_  -89.0 =    0.30442 +j   -18.221

ELEMENT = "Line.L104"
105          2           36.203 /_ -148.9 =    -30.987 +j    -18.72
------------
106          2           36.203 /_   31.1 =     30.987 +j     18.72

ELEMENT = "Line.L105"
105          1           64.835 /_  -30.7 =     55.776 +j   -33.054
105          2        0.0043413 /_  -24.3 =  0.0039566 +j -0.0017868
105          3        0.0046633 /_ -156.9 =  -0.0042898 +j -0.0018288
------------
108          1           64.835 /_  149.3 =    -55.776 +j    33.055
108          2        0.0032765 /_  155.7 =  -0.0029861 +j 0.0013486
108          3        0.0035195 /_   23.1 =  0.0032375 +j 0.0013803

ELEMENT = "Line.L106"
106          2           18.114 /_ -148.9 =    -15.507 +j   -9.3633
------------
107          2           18.115 /_   31.1 =     15.508 +j    9.3626

ELEMENT = "Line.L107"
108          1           64.836 /_  -30.7 =     55.776 +j   -33.058
------------
109          1           64.837 /_  149.3 =    -55.776 +j    33.059

ELEMENT = "Line.L108"
108          1        0.0029598 /_   82.7 =  0.0003784 +j 0.0029355
108          2        0.0032765 /_  -24.3 =  0.0029861 +j -0.0013486
108          3        0.0035195 /_ -156.9 =  -0.0032375 +j -0.0013803
------------
300          1      3.8854E-012 /_ -110.6 =  -1.3642E-012 +j -3.638E-012
300          2      5.7521E-012 /_   18.4 =  5.457E-012 +j 1.819E-012
300          3      4.0674E-012 /_ -153.4 =  -3.638E-012 +j -1.819E-012

ELEMENT = "Line.L109"
109          1           46.577 /_  -30.7 =     40.059 +j   -23.763
------------
110          1           46.577 /_  149.3 =    -40.059 +j    23.763

ELEMENT = "Line.L110"
110          1           9.1539 /_  -30.6 =     7.8751 +j   -4.6664
------------
111          1           9.1544 /_  149.3 =    -7.8751 +j    4.6676

ELEMENT = "Line.L111"
110          1           37.423 /_  -30.7 =     32.184 +j   -19.097
------------
112          1           37.423 /_  149.3 =    -32.184 +j    19.097

ELEMENT = "Line.L112"
112          1           28.106 /_  -30.7 =     24.168 +j   -14.346
------------
113          1           28.106 /_  149.3 =    -24.168 +j    14.348

ELEMENT = "Line.L113"
113          1            9.176 /_  -30.7 =     7.8901 +j   -4.6845
------------
114          1           9.1763 /_  149.3 =    -7.8901 +j    4.6852

ELEMENT = "Line.L114"
135          1           135.87 /_  -31.4 =     115.98 +j   -70.775
135          2           136.58 /_ -156.1 =    -124.91 +j   -55.258
135          3           98.172 /_   86.6 =     5.8008 +j        98
------------
35           1           135.87 /_  148.6 =    -115.98 +j    70.776
35           2           136.58 /_   23.9 =     124.91 +j    55.258
35           3           98.172 /_  -93.4 =     -5.802 +j   -98.001

ELEMENT = "Line.L116"
152          1           333.28 /_  -14.5 =     322.68 +j   -83.374
152          2           245.43 /_ -129.3 =    -155.37 +j   -189.99
152          3           265.58 /_  111.9 =    -98.976 +j    246.45
------------
52           1           333.28 /_  165.5 =    -322.68 +j    83.375
52           2           245.43 /_   50.7 =     155.38 +j    189.99
52           3           265.58 /_  -68.1 =     98.975 +j   -246.45

ELEMENT = "Line.L117"
160R         1           229.49 /_   -6.2 =     228.13 +j   -24.891
160R         2           170.93 /_ -120.0 =    -85.578 +j   -147.96
160R         3           185.72 /_  120.0 =    -92.918 +j    160.81
------------
67           1           229.49 /_  173.8 =    -228.13 +j    24.892
67           2           170.93 /_   60.0 =     85.579 +j    147.96
67           3           185.72 /_  -60.0 =     92.916 +j   -160.81

ELEMENT = "Line.SW1"
150R         1           630.66 /_  -21.8 =     585.71 +j   -233.85
150R         2           409.16 /_ -139.6 =    -311.56 +j   -265.22
150R         3            503.1 /_  101.4 =    -99.664 +j    493.13
------------
149          1           630.66 /_  158.2 =    -585.71 +j    233.85
149          2           409.16 /_   40.4 =     311.56 +j    265.22
149          3            503.1 /_  -78.6 =     99.664 +j   -493.13

ELEMENT = "Line.SW2"
13           1           333.28 /_  -14.5 =     322.68 +j   -83.374
13           2           245.43 /_ -129.3 =    -155.37 +j   -189.99
13           3           265.58 /_  111.9 =    -98.976 +j    246.45
------------
152          1           333.28 /_  165.5 =    -322.68 +j    83.374
152          2           245.43 /_   50.7 =     155.37 +j    189.99
152          3           265.58 /_  -68.1 =     98.976 +j   -246.45

ELEMENT = "Line.SW3"
18           1           135.87 /_  -31.4 =     115.98 +j   -70.775
18           2           136.58 /_ -156.1 =    -124.91 +j   -55.258
18           3           98.172 /_   86.6 =     5.8008 +j        98
------------
135          1           135.87 /_  148.6 =    -115.98 +j    70.775
135          2           136.58 /_   23.9 =     124.91 +j    55.258
135          3           98.172 /_  -93.4 =    -5.8008 +j       -98

ELEMENT = "Line.SW4"
60           1           240.96 /_   -6.2 =     239.54 +j   -26.135
60           2           173.06 /_ -120.0 =    -86.648 +j   -149.81
60           3           191.52 /_  120.0 =    -95.821 +j    165.83
------------
160          1           240.96 /_  173.8 =    -239.54 +j    26.135
160          2           173.06 /_   60.0 =     86.648 +j    149.81
160          3           191.52 /_  -60.0 =     95.821 +j   -165.83

ELEMENT = "Line.SW5"
97           1           64.834 /_  -30.7 =     55.776 +j   -33.052
97           2           36.199 /_ -148.9 =    -30.982 +j   -18.723
97           3           45.493 /_   91.0 =   -0.78973 +j    45.486
------------
197          1           64.834 /_  149.3 =    -55.776 +j    33.052
197          2           36.199 /_   31.1 =     30.982 +j    18.723
197          3           45.493 /_  -89.0 =    0.78973 +j   -45.486

ELEMENT = "Line.SW6"
61           1      1.3717E-005 /_  -92.0 =  -4.7684E-007 +j -1.3709E-005
61           2      1.4355E-005 /_  147.9 =  -1.2159E-005 +j 7.6294E-006
61           3      1.4291E-005 /_   27.8 =  1.2636E-005 +j 6.6757E-006
------------
61S          1      1.3717E-005 /_   88.0 =  4.7684E-007 +j 1.3709E-005
61S          2      1.4355E-005 /_  -32.1 =  1.2159E-005 +j -7.6294E-006
61S          3      1.4291E-005 /_ -152.2 =  -1.2636E-005 +j -6.6757E-006

ELEMENT = "Line.SW7"
151          1                0 /_    0.0 =          0 +j         0
151          2                0 /_    0.0 =          0 +j         0
151          3                0 /_    0.0 =          0 +j         0
------------
300_OPEN     1                0 /_    0.0 =          0 +j         0
300_OPEN     2                0 /_    0.0 =          0 +j         0
300_OPEN     3                0 /_    0.0 =          0 +j         0

ELEMENT = "Line.SW8"
54           1                0 /_    0.0 =          0 +j         0
------------
94_OPEN      1                0 /_    0.0 =          0 +j         0

ELEMENT = "Transformer.XFM1"
61S          1      1.3677E-005 /_  -93.1 =  -7.3836E-007 +j -1.3657E-005
61S          2      1.4037E-005 /_  148.0 =  -1.1905E-005 +j 7.4383E-006
61S          3      1.3919E-005 /_   27.4 =  1.236E-005 +j 6.401E-006
61S          0                0 /_    0.0 =          0 +j         0
------------
610          1      5.0842E-013 /_  153.4 =  -4.5475E-013 +j 2.2737E-013
610          2      1.2244E-012 /_ -111.8 =  -4.5475E-013 +j -1.1369E-012
610          3      2.2737E-012 /_   53.1 =  1.3642E-012 +j 1.819E-012
610          0                0 /_    0.0 =          0 +j         0

ELEMENT = "Capacitor.C83"
83           1           86.205 /_   85.9 =     6.2307 +j     85.98
83           2           86.304 /_  -32.6 =     72.704 +j   -46.502
83           3           85.939 /_ -152.8 =    -76.461 +j   -39.233
------------
83           0           86.205 /_  -94.1 =    -6.2307 +j    -85.98
83           0           86.304 /_  147.4 =    -72.704 +j    46.502
83           0           85.939 /_   27.2 =     76.461 +j    39.233

ELEMENT = "Capacitor.C88A"
88           1           21.385 /_   86.0 =      1.491 +j    21.333
------------
88           0           21.385 /_  -94.0 =     -1.491 +j   -21.333

ELEMENT = "Capacitor.C90B"
90           2           21.377 /_  -32.7 =     17.984 +j   -11.555
------------
90           0           21.377 /_  147.3 =    -17.984 +j    11.555

ELEMENT = "Capacitor.C92C"
92           3           21.456 /_ -152.7 =    -19.058 +j    -9.856
------------
92           0           21.456 /_   27.3 =     19.058 +j     9.856

ELEMENT = "Transformer.REG2A"
9            1           28.071 /_  -28.1 =     24.771 +j   -13.205
9            0           28.071 /_  151.9 =    -24.771 +j    13.205
------------
9R           1           28.071 /_  151.9 =    -24.771 +j    13.205
9R           0           28.071 /_  -28.1 =     24.771 +j   -13.205

ELEMENT = "Transformer.REG3A"
25           1           18.866 /_  -29.1 =     16.489 +j   -9.1689
25           0           18.866 /_  150.9 =    -16.489 +j    9.1689
------------
25R          1           18.633 /_  150.9 =    -16.285 +j    9.0557
25R          0           18.633 /_  -29.1 =     16.285 +j   -9.0557

ELEMENT = "Transformer.REG4A"
160          1           240.96 /_   -6.2 =     239.54 +j   -26.135
160          0           240.96 /_  173.8 =    -239.54 +j    26.135
------------
160R         1           229.49 /_  173.8 =    -228.13 +j    24.891
160R         0           229.49 /_   -6.2 =     228.13 +j   -24.891

ELEMENT = "Transformer.REG3C"
25           3           18.591 /_   92.2 =   -0.72132 +j    18.577
25           0           18.591 /_  -87.8 =    0.72132 +j   -18.577
------------
25R          3           18.591 /_  -87.8 =    0.72132 +j   -18.577
25R          0           18.591 /_   92.2 =   -0.72132 +j    18.577

ELEMENT = "Transformer.REG4B"
160          2           173.06 /_ -120.0 =    -86.648 +j   -149.81
160          0           173.06 /_   60.0 =     86.648 +j    149.81
------------
160R         2           170.93 /_   60.0 =     85.578 +j    147.96
160R         0           170.93 /_ -120.0 =    -85.578 +j   -147.96

ELEMENT = "Transformer.REG4C"
160          3           191.52 /_  120.0 =    -95.821 +j    165.83
160          0           191.52 /_  -60.0 =     95.821 +j   -165.83
------------
160R         3           185.72 /_  -60.0 =     92.918 +j   -160.81
160R         0           185.72 /_  120.0 =    -92.918 +j    160.81

= = = = = = = = = = = = = = = = = = =  = = = = = = = = = = =  = =

Power Conversion Elements

  Bus    Phase    Magnitude, A     Angle      (Real)   +j  (Imag)

ELEMENT = "Load.S1A"
1            1           18.167 /_  -27.2 =     16.157 +j   -8.3067
1            0           18.167 /_  152.8 =    -16.157 +j    8.3067

ELEMENT = "Load.S2B"
2            2           8.9967 /_ -146.9 =    -7.5353 +j   -4.9152
2            0           8.9967 /_   33.1 =     7.5353 +j    4.9152

ELEMENT = "Load.S4C"
4            3           18.141 /_   93.0 =   -0.95373 +j    18.115
4            0           18.141 /_  -87.0 =    0.95373 +j   -18.115

ELEMENT = "Load.S5C"
5            3           9.3169 /_   93.0 =   -0.48739 +j    9.3042
5            0           9.3169 /_  -87.0 =    0.48739 +j   -9.3042

ELEMENT = "Load.S6C"
6            3           19.113 /_   93.0 =   -0.99556 +j    19.087
6            0           19.113 /_  -87.0 =    0.99556 +j   -19.087

ELEMENT = "Load.S7A"
7            1           9.1671 /_  -27.7 =     8.1179 +j   -4.2585
7            0           9.1671 /_  152.3 =    -8.1179 +j    4.2585

ELEMENT = "Load.S9A"
9            1           18.471 /_  -28.0 =     16.306 +j   -8.6782
9            0           18.471 /_  152.0 =    -16.306 +j    8.6782

ELEMENT = "Load.S10A"
10           1           9.3169 /_  -28.1 =     8.2217 +j   -4.3829
10           0           9.3169 /_  151.9 =    -8.2217 +j    4.3829

ELEMENT = "Load.S11A"
11           1           18.754 /_  -28.1 =     16.548 +j   -8.8243
11           0           18.754 /_  151.9 =    -16.548 +j    8.8243

ELEMENT = "Load.S12B"
12           2           9.0228 /_ -147.3 =    -7.5931 +j   -4.8739
12           0           9.0228 /_   32.7 =     7.5931 +j    4.8739

ELEMENT = "Load.S16C"
16           3           18.417 /_   92.3 =   -0.74021 +j    18.402
16           0           18.417 /_  -87.7 =    0.74021 +j   -18.402

ELEMENT = "Load.S17C"
17           3           9.2036 /_   92.3 =   -0.37153 +j    9.1961
17           0           9.2036 /_  -87.7 =    0.37153 +j   -9.1961

ELEMENT = "Load.S19A"
19           1           18.786 /_  -28.9 =      16.45 +j   -9.0734
19           0           18.786 /_  151.1 =     -16.45 +j    9.0734

ELEMENT = "Load.S20A"
20           1           18.634 /_  -28.9 =     16.314 +j   -9.0046
20           0           18.634 /_  151.1 =    -16.314 +j    9.0046

ELEMENT = "Load.S22B"
22           2           19.104 /_ -147.8 =    -16.167 +j   -10.177
22           0           19.104 /_   32.2 =     16.167 +j    10.177

ELEMENT = "Load.S24C"
24           3           18.579 /_   92.2 =   -0.71784 +j    18.565
24           0           18.579 /_  -87.8 =    0.71784 +j   -18.565

ELEMENT = "Load.S28A"
28           1           18.634 /_  -29.0 =     16.291 +j   -9.0464
28           0           18.634 /_  151.0 =    -16.291 +j    9.0464

ELEMENT = "Load.S29A"
29           1           18.467 /_  -29.1 =     16.142 +j   -8.9715
29           0           18.467 /_  150.9 =    -16.142 +j    8.9715

ELEMENT = "Load.S30C"
30           3           18.592 /_   92.2 =    -0.7196 +j    18.578
30           0           18.592 /_  -87.8 =     0.7196 +j   -18.578

ELEMENT = "Load.S31C"
31           3           9.2943 /_   92.2 =   -0.36021 +j    9.2873
31           0           9.2943 /_  -87.8 =    0.36021 +j   -9.2873

ELEMENT = "Load.S32C"
32           3           9.2979 /_   92.2 =   -0.35911 +j     9.291
32           0           9.2979 /_  -87.8 =    0.35911 +j    -9.291

ELEMENT = "Load.S33A"
33           1           18.634 /_  -29.1 =     16.284 +j   -9.0585
33           0           18.634 /_  150.9 =    -16.284 +j    9.0585

ELEMENT = "Load.S34C"
34           3           18.879 /_   92.3 =   -0.76748 +j    18.864
34           0           18.879 /_  -87.7 =    0.76748 +j   -18.864

ELEMENT = "Load.S35A"
35           1           10.739 /_    2.2 =     10.731 +j   0.40443
35           2           10.739 /_ -177.8 =    -10.731 +j  -0.40443

ELEMENT = "Load.S37A"
37           1           18.424 /_  -29.0 =     16.118 +j   -8.9251
37           0           18.424 /_  151.0 =    -16.118 +j    8.9251

ELEMENT = "Load.S38B"
38           2           9.3169 /_ -147.9 =    -7.8951 +j    -4.947
38           0           9.3169 /_   32.1 =     7.8951 +j     4.947

ELEMENT = "Load.S39B"
39           2            9.112 /_ -147.9 =    -7.7221 +j   -4.8371
39           0            9.112 /_   32.1 =     7.7221 +j    4.8371

ELEMENT = "Load.S41C"
41           3           9.2781 /_   92.2 =   -0.35044 +j    9.2715
41           0           9.2781 /_  -87.8 =    0.35044 +j   -9.2715

ELEMENT = "Load.S42A"
42           1           9.4365 /_  -29.0 =     8.2524 +j   -4.5766
42           0           9.4365 /_  151.0 =    -8.2524 +j    4.5766

ELEMENT = "Load.S43B"
43           2           19.014 /_ -148.0 =    -16.124 +j   -10.078
43           0           19.014 /_   32.0 =     16.124 +j    10.078

ELEMENT = "Load.S45A"
45           1           9.3169 /_  -29.1 =     8.1447 +j   -4.5244
45           0           9.3169 /_  150.9 =    -8.1447 +j    4.5244

ELEMENT = "Load.S46A"
46           1           9.4559 /_  -29.1 =     8.2655 +j    -4.593
46           0           9.4559 /_  150.9 =    -8.2655 +j     4.593

ELEMENT = "Load.S47"
47           1           17.908 /_  -38.0 =     14.105 +j   -11.034
47           2           17.908 /_ -157.0 =    -16.485 +j   -6.9975
47           3           17.908 /_   83.1 =     2.1562 +j    17.778
47           0          0.33807 /_   48.6 =    0.22336 +j   0.25378

ELEMENT = "Load.S48"
48           1            35.25 /_  -38.0 =     27.761 +j   -21.723
48           2           36.495 /_ -157.0 =    -33.595 +j   -14.256
48           3            35.85 /_   83.1 =     4.3227 +j    35.589
48           0           1.5611 /_   14.5 =     1.5113 +j   0.39116

ELEMENT = "Load.S49A"
49           1           18.196 /_  -38.0 =      14.33 +j   -11.213
49           0           18.196 /_  142.0 =     -14.33 +j    11.213

ELEMENT = "Load.S49B"
49           2            35.16 /_ -157.0 =    -32.367 +j   -13.734
49           0            35.16 /_   23.0 =     32.367 +j    13.734

ELEMENT = "Load.S49C"
49           3            16.77 /_   88.9 =    0.33575 +j    16.767
49           0            16.77 /_  -91.1 =   -0.33575 +j   -16.767

ELEMENT = "Load.S50C"
50           3           18.611 /_   92.0 =   -0.65634 +j    18.599
50           0           18.611 /_  -88.0 =    0.65634 +j   -18.599

ELEMENT = "Load.S51A"
51           1           9.4614 /_  -29.1 =     8.2679 +j      -4.6
51           0           9.4614 /_  150.9 =    -8.2679 +j       4.6

ELEMENT = "Load.S52A"
52           1           18.705 /_  -28.8 =      16.39 +j   -9.0131
52           0           18.705 /_  151.2 =     -16.39 +j    9.0131

ELEMENT = "Load.S53A"
53           1           18.756 /_  -29.0 =     16.407 +j    -9.089
53           0           18.756 /_  151.0 =    -16.407 +j     9.089

ELEMENT = "Load.S55A"
55           1           9.2397 /_  -29.1 =     8.0741 +j   -4.4924
55           0           9.2397 /_  150.9 =    -8.0741 +j    4.4924

ELEMENT = "Load.S56B"
56           2           9.0641 /_ -148.0 =    -7.6859 +j   -4.8047
56           0           9.0641 /_   32.0 =     7.6859 +j    4.8047

ELEMENT = "Load.S58B"
58           2           9.3169 /_ -148.2 =    -7.9174 +j   -4.9112
58           0           9.3169 /_   31.8 =     7.9174 +j    4.9112

ELEMENT = "Load.S59B"
59           2           9.0954 /_ -148.2 =    -7.7296 +j   -4.7936
59           0           9.0954 /_   31.8 =     7.7296 +j    4.7936

ELEMENT = "Load.S60A"
60           1           9.4863 /_  -30.1 =     8.2094 +j   -4.7535
60           0           9.4863 /_  149.9 =    -8.2094 +j    4.7535

ELEMENT = "Load.S62C"
62           3           18.589 /_   91.2 =   -0.39094 +j    18.585
62           0           18.589 /_  -88.8 =    0.39094 +j   -18.585

ELEMENT = "Load.S63A"
63           1           18.999 /_  -30.1 =     16.444 +j    -9.516
63           0           18.999 /_  149.9 =    -16.444 +j     9.516

ELEMENT = "Load.S64B"
64           2           34.485 /_ -147.0 =    -28.906 +j   -18.806
64           0           34.485 /_   33.0 =     28.906 +j    18.806

ELEMENT = "Load.S65A"
65           1           10.227 /_   -7.6 =     10.138 +j   -1.3532
65           2           10.227 /_  172.4 =    -10.138 +j    1.3532

ELEMENT = "Load.S65B"
65           2           10.391 /_ -128.0 =     -6.401 +j   -8.1851
65           3           10.391 /_   52.0 =      6.401 +j    8.1851

ELEMENT = "Load.S65C"
65           3           20.488 /_  111.4 =    -7.4731 +j    19.077
65           1           20.488 /_  -68.6 =     7.4731 +j   -19.077

ELEMENT = "Load.S66C"
66           3           34.837 /_   92.7 =    -1.6436 +j    34.798
66           0           34.837 /_  -87.3 =     1.6436 +j   -34.798

ELEMENT = "Load.S68A"
68           1           9.0651 /_  -30.4 =     7.8226 +j   -4.5808
68           0           9.0651 /_  149.6 =    -7.8226 +j    4.5808

ELEMENT = "Load.S69A"
69           1           18.162 /_  -30.4 =     15.667 +j   -9.1866
69           0           18.162 /_  149.6 =    -15.667 +j    9.1866

ELEMENT = "Load.S70A"
70           1           9.0919 /_  -30.4 =     7.8411 +j   -4.6022
70           0           9.0919 /_  149.6 =    -7.8411 +j    4.6022

ELEMENT = "Load.S71A"
71           1           18.196 /_  -30.4 =     15.691 +j   -9.2145
71           0           18.196 /_  149.6 =    -15.691 +j    9.2145

ELEMENT = "Load.S73C"
73           3           18.156 /_   90.9 =   -0.29226 +j    18.153
73           0           18.156 /_  -89.1 =    0.29226 +j   -18.153

ELEMENT = "Load.S74C"
74           3            19.09 /_   90.9 =    -0.2956 +j    19.088
74           0            19.09 /_  -89.1 =     0.2956 +j   -19.088

ELEMENT = "Load.S75C"
75           3           18.207 /_   90.9 =   -0.27568 +j    18.205
75           0           18.207 /_  -89.1 =    0.27568 +j   -18.205

ELEMENT = "Load.S76A"
76           1           31.732 /_  -10.4 =     31.207 +j   -5.7467
76           2           31.732 /_  169.6 =    -31.207 +j    5.7467

ELEMENT = "Load.S76B"
76           2           20.679 /_ -128.0 =    -12.735 +j   -16.292
76           3           20.679 /_   52.0 =     12.735 +j    16.292

ELEMENT = "Load.S76C"
76           3           20.679 /_  111.2 =    -7.4947 +j    19.273
76           1           20.679 /_  -68.8 =     7.4947 +j   -19.273

ELEMENT = "Load.S77B"
77           2           18.058 /_ -149.0 =    -15.483 +j   -9.2939
77           0           18.058 /_   31.0 =     15.483 +j    9.2939

ELEMENT = "Load.S79A"
79           1           19.207 /_  -30.6 =     16.535 +j   -9.7716
79           0           19.207 /_  149.4 =    -16.535 +j    9.7716

ELEMENT = "Load.S80B"
80           2           18.021 /_ -149.1 =    -15.463 +j   -9.2549
80           0           18.021 /_   30.9 =     15.463 +j    9.2549

ELEMENT = "Load.S82A"
82           1           18.008 /_  -30.7 =     15.486 +j   -9.1916
82           0           18.008 /_  149.3 =    -15.486 +j    9.1916

ELEMENT = "Load.S83C"
83           3           9.0212 /_   90.6 =  -0.094396 +j    9.0207
83           0           9.0212 /_  -89.4 =   0.094396 +j   -9.0207

ELEMENT = "Load.S84C"
84           3           9.0579 /_   90.6 =  -0.098659 +j    9.0573
84           0           9.0579 /_  -89.4 =   0.098659 +j   -9.0573

ELEMENT = "Load.S85C"
85           3           18.137 /_   90.6 =   -0.19023 +j    18.136
85           0           18.137 /_  -89.4 =    0.19023 +j   -18.136

ELEMENT = "Load.S86B"
86           2           9.0545 /_ -149.1 =      -7.77 +j   -4.6488
86           0           9.0545 /_   30.9 =       7.77 +j    4.6488

ELEMENT = "Load.S87B"
87           2           18.123 /_ -149.2 =    -15.567 +j   -9.2804
87           0           18.123 /_   30.8 =     15.567 +j    9.2804

ELEMENT = "Load.S88A"
88           1           18.124 /_  -30.6 =     15.606 +j   -9.2168
88           0           18.124 /_  149.4 =    -15.606 +j    9.2168

ELEMENT = "Load.S90B"
90           2           18.634 /_ -149.3 =     -16.02 +j   -9.5169
90           0           18.634 /_   30.7 =      16.02 +j    9.5169

ELEMENT = "Load.S92C"
92           3           18.063 /_   90.8 =    -0.2467 +j    18.061
92           0           18.063 /_  -89.2 =     0.2467 +j   -18.061

ELEMENT = "Load.S94A"
94           1           18.152 /_  -30.5 =     15.633 +j   -9.2263
94           0           18.152 /_  149.5 =    -15.633 +j    9.2263

ELEMENT = "Load.S95B"
95           2           9.0715 /_ -149.3 =    -7.7994 +j   -4.6325
95           0           9.0715 /_   30.7 =     7.7994 +j    4.6325

ELEMENT = "Load.S96B"
96           2           9.0737 /_ -149.3 =    -7.8018 +j    -4.633
96           0           9.0737 /_   30.7 =     7.8018 +j     4.633

ELEMENT = "Load.S98A"
98           1           18.124 /_  -30.4 =     15.635 +j   -9.1678
98           0           18.124 /_  149.6 =    -15.635 +j    9.1678

ELEMENT = "Load.S99B"
99           2           18.081 /_ -148.8 =    -15.464 +j   -9.3697
99           0           18.081 /_   31.2 =     15.464 +j    9.3697

ELEMENT = "Load.S100C"
100          3           19.138 /_   91.0 =   -0.33237 +j    19.135
100          0           19.138 /_  -89.0 =    0.33237 +j   -19.135

ELEMENT = "Load.S102C"
102          3           9.0809 /_   91.0 =    -0.1625 +j    9.0794
102          0           9.0809 /_  -89.0 =     0.1625 +j   -9.0794

ELEMENT = "Load.S103C"
103          3           18.191 /_   91.0 =   -0.31542 +j    18.189
103          0           18.191 /_  -89.0 =    0.31542 +j   -18.189

ELEMENT = "Load.S104C"
104          3           18.224 /_   91.0 =   -0.30504 +j    18.221
104          0           18.224 /_  -89.0 =    0.30504 +j   -18.221

ELEMENT = "Load.S106B"
106          2            18.09 /_ -148.9 =    -15.482 +j   -9.3572
106          0            18.09 /_   31.1 =     15.482 +j    9.3572

ELEMENT = "Load.S107B"
107          2           18.116 /_ -148.9 =    -15.508 +j    -9.363
107          0           18.116 /_   31.1 =     15.508 +j     9.363

ELEMENT = "Load.S109A"
109          1           18.259 /_  -30.6 =     15.715 +j   -9.2964
109          0           18.259 /_  149.4 =    -15.715 +j    9.2964

ELEMENT = "Load.S111A"
111          1           9.1537 /_  -30.7 =     7.8742 +j   -4.6678
111          0           9.1537 /_  149.3 =    -7.8742 +j    4.6678

ELEMENT = "Load.S112A"
112          1           9.3169 /_  -30.7 =     8.0147 +j   -4.7508
112          0           9.3169 /_  149.3 =    -8.0147 +j    4.7508

ELEMENT = "Load.S113A"
113          1           18.929 /_  -30.7 =     16.276 +j   -9.6633
113          0           18.929 /_  149.3 =    -16.276 +j    9.6633

ELEMENT = "Load.S114A"
114          1           9.1756 /_  -30.7 =     7.8892 +j   -4.6853
...